New "Generator.g" phases=3 bus1=52 kv=4.16 kW=1500 kvar=0
