New "Line.sw1" phases=3 bus1=150r bus2=149 r1=0.001 r0=0.001 x1=0 x0=0 C1=0 C0=0 length=0.001
